Version 4
SHEET 1 1016 680
WIRE 272 112 240 112
WIRE 384 112 336 112
WIRE 448 112 416 112
WIRE 560 112 512 112
WIRE 160 160 32 160
WIRE 240 160 240 112
WIRE 240 160 160 160
WIRE 384 160 384 112
WIRE 416 160 416 112
WIRE 416 160 384 160
WIRE 560 160 560 112
WIRE 640 160 560 160
WIRE 32 192 32 160
WIRE 160 192 160 160
WIRE 640 192 640 160
WIRE 240 208 240 160
WIRE 272 208 240 208
WIRE 384 208 384 160
WIRE 384 208 352 208
WIRE 416 208 416 160
WIRE 448 208 416 208
WIRE 560 208 560 160
WIRE 560 208 528 208
WIRE 32 304 32 272
WIRE 160 304 160 272
WIRE 160 304 32 304
WIRE 640 304 640 272
WIRE 640 304 160 304
WIRE 160 352 160 304
FLAG 160 352 0
SYMBOL current 32 272 R180
WINDOW 0 24 80 Left 2
WINDOW 3 24 0 Left 2
WINDOW 123 24 -28 Left 2
WINDOW 39 0 0 Left 0
SYMATTR InstName I1
SYMATTR Value ""
SYMATTR Value2 AC 1
SYMBOL res 176 288 R180
WINDOW 0 37 57 Left 2
WINDOW 3 -25 58 Left 2
SYMATTR InstName R1
SYMATTR Value 5
SYMBOL res 368 192 R90
WINDOW 0 0 56 VBottom 2
WINDOW 3 32 56 VTop 2
SYMATTR InstName R2
SYMATTR Value 2.083
SYMBOL res 544 192 R90
WINDOW 0 0 56 VBottom 2
WINDOW 3 32 56 VTop 2
SYMATTR InstName R3
SYMATTR Value 9.166
SYMBOL cap 336 96 R90
WINDOW 0 0 32 VBottom 2
WINDOW 3 32 32 VTop 2
SYMATTR InstName C1
SYMATTR Value 0.12
SYMBOL cap 512 96 R90
WINDOW 0 0 32 VBottom 2
WINDOW 3 32 32 VTop 2
SYMATTR InstName C2
SYMATTR Value 0.1099
SYMBOL res 656 288 R180
WINDOW 0 40 58 Left 2
WINDOW 3 -27 59 Left 2
SYMATTR InstName RL
SYMATTR Value 1
TEXT 272 376 Left 2 !.ac dec 100 0.001 1000
TEXT 272 336 Left 2 ;Respuesta en frecuencia
